Circuit: * D:\IEP-E\Exercise 10\10.asc

.step v_gs=2
.step v_gs=3
.step v_gs=4
.step v_gs=5

Date: Mon Jan  1 13:56:03 2024
Total elapsed time: 0.112 seconds.

tnom = 27
temp = 27
method = trap
totiter = 424
traniter = 0
tranpoints = 0
accept = 0
rejected = 0
matrix size = 8
fillins = 0
solver = Normal
Avg thread counts: 6.1/0.0/8.0/6.1
Matrix Compiler1: 362 bytes object code size  0.2/0.1/[0.1]
Matrix Compiler2: 588 bytes object code size  0.1/0.1/[0.1]

