Circuit: * D:\IEP-E\Exercise 9\9.asc

.OP point found by inspection.

Date: Mon Jan  1 12:46:02 2024
Total elapsed time: 0.139 seconds.

tnom = 27
temp = 27
method = modified trap
totiter = 2082
traniter = 2082
tranpoints = 1042
accept = 1042
rejected = 0
matrix size = 3
fillins = 0
solver = Normal
Avg thread counts: 2.3/3.6/3.6/2.3
Matrix Compiler1: 122 bytes object code size  0.1/0.1/[0.1]
Matrix Compiler2: 189 bytes object code size  0.1/0.1/[0.1]

