Circuit: * D:\IEP-E\Exercise 4\4.asc

.OP point found by inspection.

Date: Sun Dec 31 00:35:03 2023
Total elapsed time: 0.101 seconds.

tnom = 27
temp = 27
method = trap
totiter = 1008
traniter = 0
tranpoints = 0
accept = 0
rejected = 0
matrix size = 4
fillins = 0
solver = Normal
Avg thread counts: 3.7/0.0/5.6/3.7
Matrix Compiler1: off  [0.1]/0.1/0.1
Matrix Compiler2: off  [0.1]/0.1/0.1

