Circuit: * D:\IEP-E\Exercise 1\1.asc

.OP point found by inspection.

Date: Mon Dec  4 12:57:57 2023
Total elapsed time: 0.045 seconds.

tnom = 27
temp = 27
method = trap
totiter = 107
traniter = 0
tranpoints = 0
accept = 0
rejected = 0
matrix size = 4
fillins = 0
solver = Normal
Avg thread counts: 8.0/0.0/8.0/8.0
Matrix Compiler1: off  [0.1]/0.2/0.2
Matrix Compiler2: off  [0.1]/0.1/0.1

