Circuit: * D:\IEP-E\Exercise 3\3.asc

.OP point found by inspection.

Date: Sun Dec 31 12:42:11 2023
Total elapsed time: 0.061 seconds.

tnom = 27
temp = 27
method = trap
totiter = 101
traniter = 0
tranpoints = 0
accept = 0
rejected = 0
matrix size = 4
fillins = 0
solver = Normal
Avg thread counts: 8.0/0.0/8.0/8.0
Matrix Compiler1:       6 opcodes  0.1/[0.1]/0.1
Matrix Compiler2: off  [0.1]/0.1/0.1

