Circuit: * D:\IEP-E\Exercise 8\8.asc

.OP point found by inspection.

Date: Mon Jan  1 11:45:22 2024
Total elapsed time: 0.116 seconds.

tnom = 27
temp = 27
method = modified trap
totiter = 2238
traniter = 2238
tranpoints = 1092
accept = 1073
rejected = 19
matrix size = 4
fillins = 0
solver = Normal
Avg thread counts: 2.2/3.5/3.5/2.2
Matrix Compiler1: off  [0.1]/0.1/0.1
Matrix Compiler2: off  [0.1]/0.1/0.1

