Circuit: * D:\IEP-E\Exercise 0\0.asc

Direct Newton iteration for .op point succeeded.

Date: Mon Dec  4 12:51:41 2023
Total elapsed time: 0.040 seconds.

tnom = 27
temp = 27
method = trap
totiter = 3
traniter = 0
tranpoints = 0
accept = 0
rejected = 0
matrix size = 3
fillins = 0
solver = Normal
Avg thread counts: 8.0/0.0/8.0/8.0
Matrix Compiler1: 68 bytes object code size
Matrix Compiler2: 175 bytes object code size
