Circuit: * D:\IEP-E\Exercise 7\7.asc

.OP point found by inspection.

Date: Mon Jan  1 08:56:08 2024
Total elapsed time: 0.119 seconds.

tnom = 27
temp = 27
method = modified trap
totiter = 2101
traniter = 2101
tranpoints = 1042
accept = 1042
rejected = 0
matrix size = 4
fillins = 0
solver = Normal
Avg thread counts: 2.3/3.6/3.6/2.3
Matrix Compiler1:       7 opcodes  0.1/[0.1]/0.1
Matrix Compiler2: off  [0.1]/0.1/0.1

