Circuit: * D:\IEP-E\Exercise 5\5.asc

.OP point found by inspection.

Date: Sun Dec 31 00:51:48 2023
Total elapsed time: 0.052 seconds.

tnom = 27
temp = 27
method = trap
totiter = 161
traniter = 0
tranpoints = 0
accept = 0
rejected = 0
matrix size = 4
fillins = 0
solver = Normal
Avg thread counts: 8.0/0.0/8.0/8.0
Matrix Compiler1: off  [0.1]/0.1/0.1
Matrix Compiler2: off  [0.1]/0.1/0.1

